Version 4
SHEET 1 880 680
WIRE 48 48 -48 48
WIRE 256 48 128 48
WIRE 448 48 256 48
WIRE 544 48 544 16
WIRE 544 48 448 48
WIRE 256 64 256 48
WIRE 448 64 448 48
WIRE -48 128 -48 48
WIRE 256 192 256 128
WIRE 320 192 256 192
WIRE 448 192 448 128
WIRE 448 192 400 192
WIRE 256 224 256 192
WIRE 448 224 448 192
WIRE -48 336 -48 208
WIRE 64 336 -48 336
WIRE 256 336 256 288
WIRE 256 336 64 336
WIRE 448 336 448 288
WIRE 448 336 256 336
FLAG 544 16 Out
IOPIN 544 16 Out
FLAG 64 336 0
SYMBOL voltage -48 112 R0
WINDOW 123 24 124 Left 2
WINDOW 39 0 0 Left 0
SYMATTR InstName V1
SYMATTR Value SINE(0 1 1000)
SYMBOL res 144 32 R90
WINDOW 0 0 56 VBottom 2
WINDOW 3 32 56 VTop 2
SYMATTR InstName R1
SYMATTR Value 10000
SYMBOL diode 240 64 R0
WINDOW 3 -90 65 Left 2
SYMATTR Value 1N4148
SYMATTR InstName D1
SYMBOL diode 272 288 R180
WINDOW 0 24 64 Left 2
WINDOW 3 24 0 Left 2
SYMATTR InstName D2
SYMATTR Value 1N4148
SYMBOL diode 464 128 R180
WINDOW 0 24 64 Left 2
WINDOW 3 -98 0 Left 2
SYMATTR InstName D3
SYMATTR Value 1N4148
SYMBOL diode 432 224 R0
WINDOW 3 38 64 Left 2
SYMATTR Value 1N4148
SYMATTR InstName D4
SYMBOL voltage 304 192 R270
WINDOW 0 32 56 VTop 2
WINDOW 3 -32 56 VBottom 2
WINDOW 123 0 0 Left 0
WINDOW 39 0 0 Left 0
SYMATTR InstName V2
SYMATTR Value SINE(0 5 100k)
TEXT -80 344 Left 2 !.tran 5ms
