Version 4
SHEET 1 1488 680
WIRE 560 -240 528 -240
WIRE 816 -240 640 -240
WIRE 1008 -240 816 -240
WIRE 1344 -240 1088 -240
WIRE -48 -176 -48 -224
WIRE 1120 -128 992 -128
WIRE 1248 -128 1200 -128
WIRE 880 -112 848 -112
WIRE -48 -96 -192 -96
WIRE 64 -96 -48 -96
WIRE 1056 -96 992 -96
WIRE 1248 -96 1248 -128
WIRE 64 -64 64 -96
WIRE 816 -64 816 -240
WIRE 880 -64 816 -64
WIRE 1344 -64 1344 -240
WIRE 1344 -64 992 -64
WIRE 1408 -64 1408 -128
WIRE 1408 -64 1344 -64
WIRE -192 -48 -192 -96
WIRE 432 0 224 0
WIRE 688 0 512 0
WIRE 720 0 688 0
WIRE 848 0 848 -112
WIRE 848 0 800 0
WIRE 1056 0 1056 -96
WIRE 1120 0 1056 0
WIRE 1248 0 1200 0
WIRE 1248 32 1248 0
WIRE 64 80 64 16
WIRE 112 80 64 80
WIRE 224 80 224 0
WIRE 224 80 192 80
WIRE -320 128 -400 128
WIRE -192 128 -192 32
WIRE -192 128 -256 128
WIRE 0 128 -192 128
WIRE 416 128 288 128
WIRE 608 128 496 128
WIRE 688 128 688 0
WIRE 848 128 848 0
WIRE -400 176 -400 128
WIRE -192 176 -192 128
WIRE 64 192 64 176
WIRE 608 192 608 128
WIRE -400 304 -400 256
WIRE -192 304 -192 256
WIRE -192 304 -400 304
WIRE 64 304 64 272
WIRE 64 304 -192 304
WIRE 224 304 224 176
WIRE 224 304 64 304
WIRE 608 304 608 272
WIRE 848 304 848 192
WIRE 64 336 64 304
WIRE 688 448 688 192
WIRE 1344 448 1344 -64
WIRE 1344 448 688 448
FLAG -48 -224 0
FLAG 64 336 0
FLAG 608 304 0
FLAG 848 304 0
FLAG 528 -240 0
FLAG 1248 -96 0
FLAG 1248 32 0
FLAG 1408 -128 Out
IOPIN 1408 -128 Out
SYMBOL AutoGenerated\\uA741 960 -96 R0
SYMATTR InstName U1
SYMBOL npn 0 80 R0
SYMATTR InstName Q1
SYMATTR Value 2N2222
SYMBOL npn 288 80 M0
SYMATTR InstName Q2
SYMATTR Value 2N2222
SYMBOL res 208 64 R90
WINDOW 0 0 56 VBottom 2
WINDOW 3 32 56 VTop 2
SYMATTR InstName R1
SYMATTR Value 5.6k
SYMBOL res 48 -80 R0
SYMATTR InstName R2
SYMATTR Value 10k
SYMBOL voltage -48 -80 R180
WINDOW 0 24 96 Left 2
WINDOW 3 38 52 Left 2
WINDOW 123 0 0 Left 0
WINDOW 39 0 0 Left 0
SYMATTR InstName V1
SYMATTR Value 12
SYMBOL res -208 -64 R0
SYMATTR InstName R3
SYMATTR Value 120k
SYMBOL cap -256 112 R90
WINDOW 0 0 32 VBottom 2
WINDOW 3 39 30 VTop 2
SYMATTR InstName C1
SYMATTR Value 0.1µ
SYMBOL voltage -400 160 R0
WINDOW 123 0 0 Left 0
WINDOW 39 0 0 Left 0
SYMATTR InstName V2
SYMATTR Value SINE(0 0.8 1k)
SYMBOL res 48 176 R0
SYMATTR InstName R5
SYMATTR Value 1k
SYMBOL res -208 160 R0
SYMATTR InstName R4
SYMATTR Value 150k
SYMBOL res 512 112 R90
WINDOW 0 0 56 VBottom 2
WINDOW 3 32 56 VTop 2
SYMATTR InstName R6
SYMATTR Value 56k
SYMBOL res 528 -16 R90
WINDOW 0 0 56 VBottom 2
WINDOW 3 32 56 VTop 2
SYMATTR InstName R7
SYMATTR Value 120k
SYMBOL voltage 608 176 R0
WINDOW 123 0 0 Left 0
WINDOW 39 0 0 Left 0
SYMATTR InstName V3
SYMATTR Value PULSE(0 4 0 0 0 0.09m 0.125m)
SYMBOL res 816 -16 R90
WINDOW 0 0 56 VBottom 2
WINDOW 3 32 56 VTop 2
SYMATTR InstName R8
SYMATTR Value 120k
SYMBOL cap 672 128 R0
SYMATTR InstName C2
SYMATTR Value 1n
SYMBOL cap 832 128 R0
SYMATTR InstName C3
SYMATTR Value 1n
SYMBOL res 656 -256 R90
WINDOW 0 0 56 VBottom 2
WINDOW 3 32 56 VTop 2
SYMATTR InstName R9
SYMATTR Value 1k
SYMBOL voltage 1104 -128 R270
WINDOW 0 32 56 VTop 2
WINDOW 3 -32 56 VBottom 2
WINDOW 123 0 0 Left 0
WINDOW 39 0 0 Left 0
SYMATTR InstName V4
SYMATTR Value +15
SYMBOL voltage 1104 0 R270
WINDOW 0 32 56 VTop 2
WINDOW 3 -32 56 VBottom 2
WINDOW 123 0 0 Left 0
WINDOW 39 0 0 Left 0
SYMATTR InstName V5
SYMATTR Value -15
SYMBOL res 1104 -256 R90
WINDOW 0 0 56 VBottom 2
WINDOW 3 32 56 VTop 2
SYMATTR InstName R10
SYMATTR Value 1k
TEXT -434 390 Left 2 !.tran 5m
